Version 4
SHEET 1 1848 696
WIRE 256 -320 256 -352
WIRE 672 -320 672 -352
WIRE 256 -224 256 -240
WIRE 256 -224 208 -224
WIRE 672 -224 672 -240
WIRE 672 -224 624 -224
WIRE 256 -208 256 -224
WIRE 672 -208 672 -224
WIRE -848 -112 -880 -112
WIRE -736 -112 -784 -112
WIRE -688 -112 -736 -112
WIRE -592 -112 -624 -112
WIRE -560 -112 -592 -112
WIRE -464 -112 -464 -128
WIRE -464 -112 -496 -112
WIRE -416 -112 -464 -112
WIRE -304 -112 -352 -112
WIRE -256 -112 -304 -112
WIRE -144 -112 -192 -112
WIRE -112 -112 -144 -112
WIRE 256 -96 256 -128
WIRE -880 -16 -880 -112
WIRE -880 -16 -976 -16
WIRE -848 -16 -880 -16
WIRE -736 -16 -736 -112
WIRE -736 -16 -768 -16
WIRE -704 -16 -736 -16
WIRE -592 -16 -592 -112
WIRE -592 -16 -624 -16
WIRE -560 -16 -592 -16
WIRE -464 -16 -464 -112
WIRE -464 -16 -480 -16
WIRE -416 -16 -464 -16
WIRE -304 -16 -304 -112
WIRE -304 -16 -336 -16
WIRE -272 -16 -304 -16
WIRE -144 -16 -144 -112
WIRE -144 -16 -192 -16
WIRE 48 -16 -144 -16
WIRE 128 -16 48 -16
WIRE 160 -16 128 -16
WIRE 320 0 320 -16
WIRE 288 16 224 16
WIRE 1472 16 1472 -64
WIRE 400 32 352 32
WIRE 448 32 400 32
WIRE 480 32 448 32
WIRE 48 48 48 -16
WIRE 160 48 160 -16
WIRE 288 48 160 48
WIRE 400 48 400 32
WIRE 128 64 128 -16
WIRE 320 80 320 64
WIRE 512 96 464 96
WIRE 624 96 592 96
WIRE 736 96 624 96
WIRE -976 144 -976 -16
WIRE 224 144 224 16
WIRE 400 144 400 128
WIRE 400 144 224 144
WIRE 1472 144 1472 96
WIRE 400 192 400 144
WIRE 672 208 672 176
WIRE 48 224 48 128
WIRE 48 224 -16 224
WIRE 624 224 624 96
WIRE 640 224 624 224
WIRE 128 240 128 128
WIRE 816 240 816 96
WIRE 816 240 704 240
WIRE 864 240 816 240
WIRE 912 240 864 240
WIRE 640 256 608 256
WIRE 864 256 864 240
WIRE 48 272 48 224
WIRE 400 304 400 272
WIRE 400 304 224 304
WIRE 672 304 672 272
WIRE 400 320 400 304
WIRE 864 352 864 336
WIRE 128 384 128 240
WIRE -976 448 -976 224
WIRE -928 448 -976 448
WIRE -864 448 -928 448
WIRE -768 448 -784 448
WIRE -720 448 -768 448
WIRE -608 448 -640 448
WIRE -576 448 -608 448
WIRE -464 448 -496 448
WIRE -432 448 -464 448
WIRE -320 448 -352 448
WIRE -288 448 -320 448
WIRE -112 448 -208 448
WIRE 48 448 48 352
WIRE 48 448 -112 448
WIRE 128 448 48 448
WIRE 144 448 128 448
WIRE 320 448 320 432
WIRE 400 448 400 400
WIRE 464 448 464 96
WIRE 464 448 400 448
WIRE 480 448 480 32
WIRE 496 448 480 448
WIRE 608 448 608 256
WIRE 608 448 576 448
WIRE 688 448 608 448
WIRE 832 448 768 448
WIRE 224 464 224 304
WIRE 288 464 224 464
WIRE 400 480 400 448
WIRE 400 480 352 480
WIRE 144 496 144 448
WIRE 288 496 144 496
WIRE 320 544 320 512
WIRE -928 640 -928 448
WIRE -848 640 -928 640
WIRE -768 640 -768 448
WIRE -768 640 -784 640
WIRE -688 640 -768 640
WIRE -608 640 -608 448
WIRE -608 640 -624 640
WIRE -560 640 -608 640
WIRE -464 640 -464 448
WIRE -464 640 -496 640
WIRE -416 640 -464 640
WIRE -320 640 -320 448
WIRE -320 640 -352 640
WIRE -256 640 -320 640
WIRE -112 640 -112 448
WIRE -112 640 -192 640
WIRE -464 656 -464 640
FLAG -16 224 0
FLAG 48 -16 plus_
FLAG 48 448 minus_
FLAG -976 -16 in+
FLAG -976 448 in-
FLAG 256 -352 zas+
FLAG 256 -96 zas-
FLAG 320 -16 zas+
FLAG 320 80 zas-
FLAG 320 432 zas+
FLAG 320 544 zas-
FLAG 832 448 0
FLAG 912 240 out
FLAG 208 -224 0
FLAG 400 480 test-
FLAG 448 32 test+
FLAG 624 -224 0
FLAG 1472 144 0
FLAG 1472 -64 gain
FLAG 672 -352 +12
FLAG 672 176 zas+
FLAG 672 304 zas-
FLAG 864 352 0
FLAG 128 240 0
SYMBOL ZZZ\\OpAmp\\OPA820 320 32 R0
SYMATTR InstName U1
SYMBOL voltage -976 128 R0
WINDOW 123 24 160 Left 2
WINDOW 39 24 128 Left 2
SYMATTR Value2 AC ac 1
SYMATTR SpiceLine Rser=1u
SYMATTR InstName V1
SYMATTR Value SINE(0 1500 400k)
SYMBOL res 64 144 R180
WINDOW 0 36 76 Left 2
WINDOW 3 36 40 Left 2
SYMATTR InstName R3
SYMATTR Value 20k
SYMBOL voltage 256 -336 R0
WINDOW 123 0 0 Left 0
WINDOW 39 0 0 Left 0
SYMATTR InstName V2
SYMATTR Value 6
SYMBOL voltage 256 -224 R0
WINDOW 123 0 0 Left 0
WINDOW 39 0 0 Left 0
SYMATTR InstName V3
SYMATTR Value 6
SYMBOL ZZZ\\OpAmp\\OPA820 320 480 R0
SYMATTR InstName U2
SYMBOL ZZZ\\OpAmp\\OPA820 672 240 R0
SYMATTR InstName U3
SYMBOL voltage 672 -336 R0
WINDOW 123 0 0 Left 0
WINDOW 39 0 0 Left 0
SYMATTR InstName V4
SYMATTR Value 12
SYMBOL bv 1472 0 R0
SYMATTR InstName B1
SYMATTR Value V=(1+2*(R1/Rgain))*(R3/R2)
SYMBOL res -752 -32 R90
WINDOW 0 0 56 VBottom 2
WINDOW 3 32 56 VTop 2
SYMATTR InstName R1
SYMATTR Value 3Meg
SYMBOL res 64 368 R180
WINDOW 0 36 76 Left 2
WINDOW 3 36 40 Left 2
SYMATTR InstName R12
SYMATTR Value 20k
SYMBOL res 592 432 R90
WINDOW 0 0 56 VBottom 2
WINDOW 3 32 56 VTop 2
SYMATTR InstName R16
SYMATTR Value 1k
SYMBOL res -608 -32 R90
WINDOW 0 0 56 VBottom 2
WINDOW 3 32 56 VTop 2
SYMATTR InstName R2
SYMATTR Value 3Meg
SYMBOL res -464 -32 R90
WINDOW 0 0 56 VBottom 2
WINDOW 3 32 56 VTop 2
SYMATTR InstName R4
SYMATTR Value 3Meg
SYMBOL res -320 -32 R90
WINDOW 0 0 56 VBottom 2
WINDOW 3 32 56 VTop 2
SYMATTR InstName R5
SYMATTR Value 3Meg
SYMBOL res -176 -32 R90
WINDOW 0 0 56 VBottom 2
WINDOW 3 32 56 VTop 2
SYMATTR InstName R6
SYMATTR Value 3Meg
SYMBOL res -768 432 R90
WINDOW 0 0 56 VBottom 2
WINDOW 3 32 56 VTop 2
SYMATTR InstName R7
SYMATTR Value 3Meg
SYMBOL res -624 432 R90
WINDOW 0 0 56 VBottom 2
WINDOW 3 32 56 VTop 2
SYMATTR InstName R8
SYMATTR Value 3Meg
SYMBOL res -480 432 R90
WINDOW 0 0 56 VBottom 2
WINDOW 3 32 56 VTop 2
SYMATTR InstName R9
SYMATTR Value 3Meg
SYMBOL res -336 432 R90
WINDOW 0 0 56 VBottom 2
WINDOW 3 32 56 VTop 2
SYMATTR InstName R10
SYMATTR Value 3Meg
SYMBOL res -192 432 R90
WINDOW 0 0 56 VBottom 2
WINDOW 3 32 56 VTop 2
SYMATTR InstName R11
SYMATTR Value 3Meg
SYMBOL res 848 240 R0
SYMATTR InstName R20
SYMATTR Value 1Meg
SYMBOL res 784 432 R90
WINDOW 0 0 56 VBottom 2
WINDOW 3 32 56 VTop 2
SYMATTR InstName R17
SYMATTR Value 1k
SYMBOL res 832 80 R90
WINDOW 0 0 56 VBottom 2
WINDOW 3 32 56 VTop 2
SYMATTR InstName R18
SYMATTR Value 1k
SYMBOL res 608 80 R90
WINDOW 0 0 56 VBottom 2
WINDOW 3 32 56 VTop 2
SYMATTR InstName R19
SYMATTR Value 1k
SYMBOL res 416 144 R180
WINDOW 0 36 76 Left 2
WINDOW 3 36 40 Left 2
SYMATTR InstName R13
SYMATTR Value 1k
SYMBOL res 416 416 R180
WINDOW 0 36 76 Left 2
WINDOW 3 36 40 Left 2
SYMATTR InstName R14
SYMATTR Value 1k
SYMBOL res 416 288 R180
WINDOW 0 36 76 Left 2
WINDOW 3 36 40 Left 2
SYMATTR InstName R15
SYMATTR Value 2k
SYMBOL cap -784 -128 R90
WINDOW 0 0 32 VBottom 2
WINDOW 3 32 32 VTop 2
SYMATTR InstName C1
SYMATTR Value 10p
SYMBOL cap -624 -128 R90
WINDOW 0 0 32 VBottom 2
WINDOW 3 32 32 VTop 2
SYMATTR InstName C2
SYMATTR Value 10p
SYMBOL cap -496 -128 R90
WINDOW 0 0 32 VBottom 2
WINDOW 3 32 32 VTop 2
SYMATTR InstName C3
SYMATTR Value 10p
SYMBOL cap -352 -128 R90
WINDOW 0 0 32 VBottom 2
WINDOW 3 32 32 VTop 2
SYMATTR InstName C4
SYMATTR Value 10p
SYMBOL cap -192 -128 R90
WINDOW 0 0 32 VBottom 2
WINDOW 3 32 32 VTop 2
SYMATTR InstName C5
SYMATTR Value 10p
SYMBOL cap -784 624 R90
WINDOW 0 0 32 VBottom 2
WINDOW 3 32 32 VTop 2
SYMATTR InstName C6
SYMATTR Value 10p
SYMBOL cap -624 624 R90
WINDOW 0 0 32 VBottom 2
WINDOW 3 32 32 VTop 2
SYMATTR InstName C7
SYMATTR Value 10p
SYMBOL cap -496 624 R90
WINDOW 0 0 32 VBottom 2
WINDOW 3 32 32 VTop 2
SYMATTR InstName C8
SYMATTR Value 10p
SYMBOL cap -352 624 R90
WINDOW 0 0 32 VBottom 2
WINDOW 3 32 32 VTop 2
SYMATTR InstName C9
SYMATTR Value 10p
SYMBOL cap -192 624 R90
WINDOW 0 0 32 VBottom 2
WINDOW 3 32 32 VTop 2
SYMATTR InstName C10
SYMATTR Value 10p
SYMBOL cap 112 384 R0
SYMATTR InstName C11
SYMATTR Value 1.51n
SYMBOL cap 112 64 R0
SYMATTR InstName C12
SYMATTR Value 1.51n
TEXT -1008 504 Left 2 !.tran 100u
TEXT 1080 -160 Left 2 !.param R1 100k
TEXT 1088 -112 Left 2 !.param Rgain 200k
TEXT 1096 -56 Left 2 !.param R3 100k
TEXT 1096 -16 Left 2 !.param R2 100k
TEXT -400 224 Left 2 ;4Vpp, 2V amplitude for 1500V
TEXT 960 240 Left 2 ;8Vpp, 4V amplitude
TEXT -384 168 Left 2 ;0.0013315579 GAIN
